@<TRIPOS>MOLECULE
*****
    9     8     1     0     0
SMALL
bcc


@<TRIPOS>ATOM
      1 C            0.9960    -0.0950     0.0110 c3         1 UNL      -0.136100
      2 C1           0.4980     1.2770     0.4130 c3         1 UNL       0.126400
      3 O            0.9640     2.2520    -0.5090 oh         1 UNL      -0.599800
      4 H            0.6540    -0.3490    -0.9980 hc         1 UNL       0.042367
      5 H1           0.6390    -0.8590     0.7070 hc         1 UNL       0.042367
      6 H2           2.0910    -0.1200    -0.0090 hc         1 UNL       0.042367
      7 H3          -0.5950     1.3030     0.4140 h1         1 UNL       0.043200
      8 H4           0.8510     1.5450     1.4140 h1         1 UNL       0.043200
      9 H5           1.9360     2.2300    -0.4940 ho         1 UNL       0.396000
@<TRIPOS>BOND
     1     1     2 1   
     2     2     3 1   
     3     1     4 1   
     4     1     5 1   
     5     1     6 1   
     6     2     7 1   
     7     2     8 1   
     8     3     9 1   
@<TRIPOS>SUBSTRUCTURE
     1 UNL         1 TEMP              0 ****  ****    0 ROOT
