@<TRIPOS>MOLECULE
*****
 9 8 0 0 0
SMALL
GASTEIGER

@<TRIPOS>ATOM
      1 C           0.9962   -0.0954    0.0108 C.3     1  UNL1       -0.0418
      2 C           0.4985    1.2774    0.4131 C.3     1  UNL1        0.0414
      3 O           0.9639    2.2520   -0.5091 O.3     1  UNL1       -0.3953
      4 H           0.6539   -0.3487   -0.9980 H       1  UNL1        0.0252
      5 H           0.6390   -0.8589    0.7074 H       1  UNL1        0.0252
      6 H           2.0907   -0.1203   -0.0087 H       1  UNL1        0.0252
      7 H          -0.5951    1.3030    0.4136 H       1  UNL1        0.0554
      8 H           0.8505    1.5447    1.4140 H       1  UNL1        0.0554
      9 H           1.9360    2.2296   -0.4936 H       1  UNL1        0.2094
@<TRIPOS>BOND
     1     1     2    1
     2     2     3    1
     3     1     4    1
     4     1     5    1
     5     1     6    1
     6     2     7    1
     7     2     8    1
     8     3     9    1
